Circuit: * C:\Users\micha\Projects\Altium-Projects\trunk\UM10155\LTSpice\UcD simplified\UcD-LMG5200.asc

WARNING: Less than two connections to node PWM-HI.  This node is used by A2.
WARNING: Less than two connections to node PWM-LO.  This node is used by A4.
Instance "m:u1:47": Length shorter than recommended for a level 1 MOSFET.
Instance "m:u1:51": Length shorter than recommended for a level 1 MOSFET.
Instance "m:u1:50": Length shorter than recommended for a level 1 MOSFET.
Instance "m:u1:45": Length shorter than recommended for a level 1 MOSFET.
Direct Newton iteration failed to find .op point.  (Use ".option noopiter" to skip.)
Starting Gmin stepping
Gmin = 10
vernier = 0.5
vernier = 0.25
Gmin = 2.91271
vernier = 0.125
vernier = 0.0625
vernier = 0.03125
vernier = 0.015625
Gmin = 2.85674
vernier = 0.0078125
vernier = 0.00390625
vernier = 0.00195313
vernier = 0.000976563
Gmin = 2.8637
vernier = 0.000488281
Gmin = 0
Gmin stepping succeeded in finding the operating point.

Heightened Def Con from 5.0801e-007 to 5.08065e-007
.fourier quantity "V(out)" not pressent in data.


Date: Tue Jun 25 22:29:03 2019
Total elapsed time: 2.888 seconds.

tnom = 27
temp = 27
method = modified trap
totiter = 11056
traniter = 9536
tranpoints = 4043
accept = 3722
rejected = 322
matrix size = 201
fillins = 258
solver = Alternate
Thread vector: 56.3/27.1[3] 23.6/11.4[3] 20.8/3.7[3] 4.3/6.1[1]  2592/500
Matrix Compiler1: 25.67 KB object code size  7.7/7.5/[5.5]
Matrix Compiler2: 25.50 KB object code size  18.8/14.1/[6.7]

