Circuit: * C:\Users\micha\Projects\Altium-Projects\trunk\Vinyl\Discrete\LTSpice\RIAA.asc

Direct Newton iteration for .op point succeeded.
Note: .fourier statements are only valid with a .tran command.
      No Fourier analysis performed.

Note: .fourier statements are only valid with a .tran command.
      No Fourier analysis performed.


Date: Thu Jan 10 22:19:08 2019
Total elapsed time: 0.138 seconds.

tnom = 27
temp = 27
method = trap
totiter = 8
traniter = 0
tranpoints = 0
accept = 0
rejected = 0
matrix size = 22
fillins = 8
solver = Normal
Matrix Compiler1:     104 opcodes
Matrix Compiler2: 1.98 KB object code size
